%chk=methane_in.chk
#n CCSD/aug-cc-pVTZ Opt

 Title

0 1
C         -0.34225       -0.18347       -0.72198
H          0.74995       -0.18347       -0.72198
H         -0.70632       -0.58644       -1.66959
H         -0.70632        0.83867       -0.59716
H         -0.70632       -0.80264        0.10081

